LAMMPS (4 May 2022)
# bcc iron in a 3d periodic box

clear
units 		metal
atom_style 	spin

dimension 	3
boundary 	p p p

# necessary for the serial algorithm (sametag)
atom_modify 	map array

read_data DATA
Reading data file ...
  orthogonal box = (0 0 0) to (8.630375 8.630375 8.630375)
  reading atoms ...
  54 atoms

#lattice 	bcc 2.8665
#region 		box block 0.0 5.0 0.0 5.0 0.0 5.0
#create_box 	1 box
#create_atoms 	1 box

# setting mass, mag. moments, and interactions for bcc iron
#mass		1 55.845

set 		group all spin/random 31 2.2
Setting atom values ...
  54 settings made for spin/random
# set 		group all spin 2.2 0.0 0.0 1.0
velocity 	all create 100 4928459 rot yes dist gaussian

pair_style 	hybrid/overlay eam/alloy spin/exchange 3.5
pair_coeff 	* * eam/alloy Fe_Mishin2006.eam.alloy Fe
pair_coeff 	* * spin/exchange exchange 3.4 0.02726 0.2171 1.841 offset yes

neighbor 	0.1 bin
neigh_modify 	every 10 check yes delay 20

fix 		1 all precession/spin zeeman 0.0 0.0 0.0 1.0
fix_modify 	1 energy yes
fix 		2 all langevin/spin 0.0 0.0 21

fix 		3 all nve/spin lattice frozen #moving
fix 4 all move wiggle_eigen 10 10.0 1.0 2.0 units box

timestep	0.0001

# compute and output options

compute 	out_mag    all spin
compute 	out_pe     all pe
compute 	out_ke     all ke
compute 	out_temp   all temp

variable 	magz      equal c_out_mag[3]
variable 	magnorm   equal c_out_mag[4]
variable 	emag      equal c_out_mag[5]
variable 	tmag      equal c_out_mag[6]

thermo_style    custom step time v_magnorm v_tmag temp v_emag ke pe press etotal
thermo          50

compute 	outsp all property/atom spx spy spz sp fmx fmy fmz
dump 		1 all custom 5 dump_spins.lammpstrj c_outsp[1] c_outsp[2] c_outsp[3]
dump_modify 1 header no
#dump 1 all xyz 5 dump.xyz

run 		10000

CITE-CITE-CITE-CITE-CITE-CITE-CITE-CITE-CITE-CITE-CITE-CITE-CITE

Your simulation uses code contributions which should be cited:

- fix nve/spin command:

@article{tranchida2018massively,
title={Massively parallel symplectic algorithm for coupled magnetic spin dynamics and molecular dynamics},
author={Tranchida, J and Plimpton, SJ and Thibaudeau, P and Thompson, AP},
journal={Journal of Computational Physics},
volume={372},
pages={406-425},
year={2018},
publisher={Elsevier}
doi={10.1016/j.jcp.2018.06.042}
}

CITE-CITE-CITE-CITE-CITE-CITE-CITE-CITE-CITE-CITE-CITE-CITE-CITE

  update every 10 steps, delay 20 steps, check yes
Step          Time        v_magnorm        v_tmag          Temp          v_emag         KinEng         PotEng         Press          TotEng
0   0              0.17318394     2717.4932      100.00358      5.7261338      0.6851033     -225.35318     -17679.872     -224.66808
Averages over the last 101 of 201 rows, steps 5000 to 10000:
v_magnorm v_tmag Temp v_emag KinEng PotEng Press TotEng
0.173185 -5144.33 10177.3 5.4414 69.7222 -120.935 1.92134e+06 -51.2127
Loop time of 2.58916 on 1 procs for 10000 steps with 54 atoms
